
---------- Begin Simulation Statistics ----------
final_tick                                55347023000                       # Number of ticks from beginning of simulation (restored from checkpoints and never reset)
host_inst_rate                                 296840                       # Simulator instruction rate (inst/s)
host_mem_usage                                 701120                       # Number of bytes of host memory used
host_op_rate                                   324837                       # Simulator op (including micro ops) rate (op/s)
host_seconds                                   336.88                       # Real time elapsed on the host
host_tick_rate                              164291919                       # Simulator tick rate (ticks/s)
sim_freq                                 1000000000000                       # Frequency of simulated ticks
sim_insts                                   100000001                       # Number of instructions simulated
sim_ops                                     109431937                       # Number of ops (including micro ops) simulated
sim_seconds                                  0.055347                       # Number of seconds simulated
sim_ticks                                 55347023000                       # Number of ticks simulated
system.cpu.branchPred.BTBCorrect                    0                       # Number of correct BTB predictions (this stat may not work properly.
system.cpu.branchPred.BTBHitPct             86.970303                       # BTB Hit Percentage
system.cpu.branchPred.BTBHits                 8735546                       # Number of BTB hits
system.cpu.branchPred.BTBLookups             10044286                       # Number of BTB lookups
system.cpu.branchPred.RASInCorrect                351                       # Number of incorrect RAS predictions.
system.cpu.branchPred.condIncorrect            152115                       # Number of conditional branches incorrect
system.cpu.branchPred.condPredicted          16615202                       # Number of conditional branches predicted
system.cpu.branchPred.indirectHits             300033                       # Number of indirect target hits.
system.cpu.branchPred.indirectLookups          610191                       # Number of indirect predictor lookups.
system.cpu.branchPred.indirectMisses           310158                       # Number of indirect misses.
system.cpu.branchPred.lookups                20722709                       # Number of BP lookups
system.cpu.branchPred.usedRAS                 1050717                       # Number of times the RAS was used to get a target.
system.cpu.branchPredindirectMispredicted         1156                       # Number of mispredicted indirect branches.
system.cpu.committedInsts                   100000001                       # Number of instructions committed
system.cpu.committedOps                     109431937                       # Number of ops (including micro ops) committed
system.cpu.cpi                               1.106940                       # CPI: cycles per instruction
system.cpu.discardedOps                        704508                       # Number of ops (including micro ops) which were discarded before commit
system.cpu.dtb.accesses                             0                       # DTB accesses
system.cpu.dtb.align_faults                         0                       # Number of TLB faults due to alignment restrictions
system.cpu.dtb.domain_faults                        0                       # Number of TLB faults due to domain restrictions
system.cpu.dtb.flush_entries                        0                       # Number of entries that have been flushed from TLB
system.cpu.dtb.flush_tlb                            0                       # Number of times complete TLB was flushed
system.cpu.dtb.flush_tlb_asid                       0                       # Number of times TLB was flushed by ASID
system.cpu.dtb.flush_tlb_mva                        0                       # Number of times TLB was flushed by MVA
system.cpu.dtb.flush_tlb_mva_asid                   0                       # Number of times TLB was flushed by MVA & ASID
system.cpu.dtb.hits                                 0                       # DTB hits
system.cpu.dtb.inst_accesses                        0                       # ITB inst accesses
system.cpu.dtb.inst_hits                            0                       # ITB inst hits
system.cpu.dtb.inst_misses                          0                       # ITB inst misses
system.cpu.dtb.misses                               0                       # DTB misses
system.cpu.dtb.perms_faults                         0                       # Number of TLB faults due to permissions restrictions
system.cpu.dtb.prefetch_faults                      0                       # Number of TLB faults due to prefetch
system.cpu.dtb.read_accesses                        0                       # DTB read accesses
system.cpu.dtb.read_hits                            0                       # DTB read hits
system.cpu.dtb.read_misses                          0                       # DTB read misses
system.cpu.dtb.stage2_mmu.stage2_tlb.accesses            0                       # DTB accesses
system.cpu.dtb.stage2_mmu.stage2_tlb.align_faults            0                       # Number of TLB faults due to alignment restrictions
system.cpu.dtb.stage2_mmu.stage2_tlb.domain_faults            0                       # Number of TLB faults due to domain restrictions
system.cpu.dtb.stage2_mmu.stage2_tlb.flush_entries            0                       # Number of entries that have been flushed from TLB
system.cpu.dtb.stage2_mmu.stage2_tlb.flush_tlb            0                       # Number of times complete TLB was flushed
system.cpu.dtb.stage2_mmu.stage2_tlb.flush_tlb_asid            0                       # Number of times TLB was flushed by ASID
system.cpu.dtb.stage2_mmu.stage2_tlb.flush_tlb_mva            0                       # Number of times TLB was flushed by MVA
system.cpu.dtb.stage2_mmu.stage2_tlb.flush_tlb_mva_asid            0                       # Number of times TLB was flushed by MVA & ASID
system.cpu.dtb.stage2_mmu.stage2_tlb.hits            0                       # DTB hits
system.cpu.dtb.stage2_mmu.stage2_tlb.inst_accesses            0                       # ITB inst accesses
system.cpu.dtb.stage2_mmu.stage2_tlb.inst_hits            0                       # ITB inst hits
system.cpu.dtb.stage2_mmu.stage2_tlb.inst_misses            0                       # ITB inst misses
system.cpu.dtb.stage2_mmu.stage2_tlb.misses            0                       # DTB misses
system.cpu.dtb.stage2_mmu.stage2_tlb.perms_faults            0                       # Number of TLB faults due to permissions restrictions
system.cpu.dtb.stage2_mmu.stage2_tlb.prefetch_faults            0                       # Number of TLB faults due to prefetch
system.cpu.dtb.stage2_mmu.stage2_tlb.read_accesses            0                       # DTB read accesses
system.cpu.dtb.stage2_mmu.stage2_tlb.read_hits            0                       # DTB read hits
system.cpu.dtb.stage2_mmu.stage2_tlb.read_misses            0                       # DTB read misses
system.cpu.dtb.stage2_mmu.stage2_tlb.walker.walkRequestOrigin_Requested::Data            0                       # Table walker requests started/completed, data/inst
system.cpu.dtb.stage2_mmu.stage2_tlb.walker.walkRequestOrigin_Requested::Inst            0                       # Table walker requests started/completed, data/inst
system.cpu.dtb.stage2_mmu.stage2_tlb.walker.walkRequestOrigin_Requested::total            0                       # Table walker requests started/completed, data/inst
system.cpu.dtb.stage2_mmu.stage2_tlb.walker.walkRequestOrigin_Completed::Data            0                       # Table walker requests started/completed, data/inst
system.cpu.dtb.stage2_mmu.stage2_tlb.walker.walkRequestOrigin_Completed::Inst            0                       # Table walker requests started/completed, data/inst
system.cpu.dtb.stage2_mmu.stage2_tlb.walker.walkRequestOrigin_Completed::total            0                       # Table walker requests started/completed, data/inst
system.cpu.dtb.stage2_mmu.stage2_tlb.walker.walkRequestOrigin::total            0                       # Table walker requests started/completed, data/inst
system.cpu.dtb.stage2_mmu.stage2_tlb.walker.walks            0                       # Table walker walks requested
system.cpu.dtb.stage2_mmu.stage2_tlb.write_accesses            0                       # DTB write accesses
system.cpu.dtb.stage2_mmu.stage2_tlb.write_hits            0                       # DTB write hits
system.cpu.dtb.stage2_mmu.stage2_tlb.write_misses            0                       # DTB write misses
system.cpu.dtb.walker.walkRequestOrigin_Requested::Data            0                       # Table walker requests started/completed, data/inst
system.cpu.dtb.walker.walkRequestOrigin_Requested::Inst            0                       # Table walker requests started/completed, data/inst
system.cpu.dtb.walker.walkRequestOrigin_Requested::total            0                       # Table walker requests started/completed, data/inst
system.cpu.dtb.walker.walkRequestOrigin_Completed::Data            0                       # Table walker requests started/completed, data/inst
system.cpu.dtb.walker.walkRequestOrigin_Completed::Inst            0                       # Table walker requests started/completed, data/inst
system.cpu.dtb.walker.walkRequestOrigin_Completed::total            0                       # Table walker requests started/completed, data/inst
system.cpu.dtb.walker.walkRequestOrigin::total            0                       # Table walker requests started/completed, data/inst
system.cpu.dtb.walker.walks                         0                       # Table walker walks requested
system.cpu.dtb.write_accesses                       0                       # DTB write accesses
system.cpu.dtb.write_hits                           0                       # DTB write hits
system.cpu.dtb.write_misses                         0                       # DTB write misses
system.cpu.fetch2.amo_instructions                  0                       # Number of memory atomic instructions successfully decoded
system.cpu.fetch2.fp_instructions                   0                       # Number of floating point instructions successfully decoded
system.cpu.fetch2.int_instructions           49979690                       # Number of integer instructions successfully decoded
system.cpu.fetch2.load_instructions          17238438                       # Number of memory load instructions successfully decoded
system.cpu.fetch2.store_instructions         10039798                       # Number of memory store instructions successfully decoded
system.cpu.fetch2.vec_instructions                  0                       # Number of SIMD instructions successfully decoded
system.cpu.idleCycles                         2314581                       # Total number of cycles that the object has spent stopped
system.cpu.ipc                               0.903391                       # IPC: instructions per cycle
system.cpu.itb.accesses                             0                       # DTB accesses
system.cpu.itb.align_faults                         0                       # Number of TLB faults due to alignment restrictions
system.cpu.itb.domain_faults                        0                       # Number of TLB faults due to domain restrictions
system.cpu.itb.flush_entries                        0                       # Number of entries that have been flushed from TLB
system.cpu.itb.flush_tlb                            0                       # Number of times complete TLB was flushed
system.cpu.itb.flush_tlb_asid                       0                       # Number of times TLB was flushed by ASID
system.cpu.itb.flush_tlb_mva                        0                       # Number of times TLB was flushed by MVA
system.cpu.itb.flush_tlb_mva_asid                   0                       # Number of times TLB was flushed by MVA & ASID
system.cpu.itb.hits                                 0                       # DTB hits
system.cpu.itb.inst_accesses                        0                       # ITB inst accesses
system.cpu.itb.inst_hits                            0                       # ITB inst hits
system.cpu.itb.inst_misses                          0                       # ITB inst misses
system.cpu.itb.misses                               0                       # DTB misses
system.cpu.itb.perms_faults                         0                       # Number of TLB faults due to permissions restrictions
system.cpu.itb.prefetch_faults                      0                       # Number of TLB faults due to prefetch
system.cpu.itb.read_accesses                        0                       # DTB read accesses
system.cpu.itb.read_hits                            0                       # DTB read hits
system.cpu.itb.read_misses                          0                       # DTB read misses
system.cpu.itb.stage2_mmu.stage2_tlb.accesses            0                       # DTB accesses
system.cpu.itb.stage2_mmu.stage2_tlb.align_faults            0                       # Number of TLB faults due to alignment restrictions
system.cpu.itb.stage2_mmu.stage2_tlb.domain_faults            0                       # Number of TLB faults due to domain restrictions
system.cpu.itb.stage2_mmu.stage2_tlb.flush_entries            0                       # Number of entries that have been flushed from TLB
system.cpu.itb.stage2_mmu.stage2_tlb.flush_tlb            0                       # Number of times complete TLB was flushed
system.cpu.itb.stage2_mmu.stage2_tlb.flush_tlb_asid            0                       # Number of times TLB was flushed by ASID
system.cpu.itb.stage2_mmu.stage2_tlb.flush_tlb_mva            0                       # Number of times TLB was flushed by MVA
system.cpu.itb.stage2_mmu.stage2_tlb.flush_tlb_mva_asid            0                       # Number of times TLB was flushed by MVA & ASID
system.cpu.itb.stage2_mmu.stage2_tlb.hits            0                       # DTB hits
system.cpu.itb.stage2_mmu.stage2_tlb.inst_accesses            0                       # ITB inst accesses
system.cpu.itb.stage2_mmu.stage2_tlb.inst_hits            0                       # ITB inst hits
system.cpu.itb.stage2_mmu.stage2_tlb.inst_misses            0                       # ITB inst misses
system.cpu.itb.stage2_mmu.stage2_tlb.misses            0                       # DTB misses
system.cpu.itb.stage2_mmu.stage2_tlb.perms_faults            0                       # Number of TLB faults due to permissions restrictions
system.cpu.itb.stage2_mmu.stage2_tlb.prefetch_faults            0                       # Number of TLB faults due to prefetch
system.cpu.itb.stage2_mmu.stage2_tlb.read_accesses            0                       # DTB read accesses
system.cpu.itb.stage2_mmu.stage2_tlb.read_hits            0                       # DTB read hits
system.cpu.itb.stage2_mmu.stage2_tlb.read_misses            0                       # DTB read misses
system.cpu.itb.stage2_mmu.stage2_tlb.walker.walkRequestOrigin_Requested::Data            0                       # Table walker requests started/completed, data/inst
system.cpu.itb.stage2_mmu.stage2_tlb.walker.walkRequestOrigin_Requested::Inst            0                       # Table walker requests started/completed, data/inst
system.cpu.itb.stage2_mmu.stage2_tlb.walker.walkRequestOrigin_Requested::total            0                       # Table walker requests started/completed, data/inst
system.cpu.itb.stage2_mmu.stage2_tlb.walker.walkRequestOrigin_Completed::Data            0                       # Table walker requests started/completed, data/inst
system.cpu.itb.stage2_mmu.stage2_tlb.walker.walkRequestOrigin_Completed::Inst            0                       # Table walker requests started/completed, data/inst
system.cpu.itb.stage2_mmu.stage2_tlb.walker.walkRequestOrigin_Completed::total            0                       # Table walker requests started/completed, data/inst
system.cpu.itb.stage2_mmu.stage2_tlb.walker.walkRequestOrigin::total            0                       # Table walker requests started/completed, data/inst
system.cpu.itb.stage2_mmu.stage2_tlb.walker.walks            0                       # Table walker walks requested
system.cpu.itb.stage2_mmu.stage2_tlb.write_accesses            0                       # DTB write accesses
system.cpu.itb.stage2_mmu.stage2_tlb.write_hits            0                       # DTB write hits
system.cpu.itb.stage2_mmu.stage2_tlb.write_misses            0                       # DTB write misses
system.cpu.itb.walker.walkRequestOrigin_Requested::Data            0                       # Table walker requests started/completed, data/inst
system.cpu.itb.walker.walkRequestOrigin_Requested::Inst            0                       # Table walker requests started/completed, data/inst
system.cpu.itb.walker.walkRequestOrigin_Requested::total            0                       # Table walker requests started/completed, data/inst
system.cpu.itb.walker.walkRequestOrigin_Completed::Data            0                       # Table walker requests started/completed, data/inst
system.cpu.itb.walker.walkRequestOrigin_Completed::Inst            0                       # Table walker requests started/completed, data/inst
system.cpu.itb.walker.walkRequestOrigin_Completed::total            0                       # Table walker requests started/completed, data/inst
system.cpu.itb.walker.walkRequestOrigin::total            0                       # Table walker requests started/completed, data/inst
system.cpu.itb.walker.walks                         0                       # Table walker walks requested
system.cpu.itb.write_accesses                       0                       # DTB write accesses
system.cpu.itb.write_hits                           0                       # DTB write hits
system.cpu.itb.write_misses                         0                       # DTB write misses
system.cpu.numCycles                        110694046                       # number of cpu cycles simulated
system.cpu.numFetchSuspends                         0                       # Number of times Execute suspended instruction fetching
system.cpu.numWorkItemsCompleted                    0                       # number of work items this cpu completed
system.cpu.numWorkItemsStarted                      0                       # number of work items this cpu started
system.cpu.op_class_0::No_OpClass                   0      0.00%      0.00% # Class of committed instruction
system.cpu.op_class_0::IntAlu                72955303     66.67%     66.67% # Class of committed instruction
system.cpu.op_class_0::IntMult                 568365      0.52%     67.19% # Class of committed instruction
system.cpu.op_class_0::IntDiv                       0      0.00%     67.19% # Class of committed instruction
system.cpu.op_class_0::FloatAdd                     0      0.00%     67.19% # Class of committed instruction
system.cpu.op_class_0::FloatCmp                     0      0.00%     67.19% # Class of committed instruction
system.cpu.op_class_0::FloatCvt                     0      0.00%     67.19% # Class of committed instruction
system.cpu.op_class_0::FloatMult                    0      0.00%     67.19% # Class of committed instruction
system.cpu.op_class_0::FloatMultAcc                 0      0.00%     67.19% # Class of committed instruction
system.cpu.op_class_0::FloatDiv                     0      0.00%     67.19% # Class of committed instruction
system.cpu.op_class_0::FloatMisc                    0      0.00%     67.19% # Class of committed instruction
system.cpu.op_class_0::FloatSqrt                    0      0.00%     67.19% # Class of committed instruction
system.cpu.op_class_0::SimdAdd                 241252      0.22%     67.41% # Class of committed instruction
system.cpu.op_class_0::SimdAddAcc                   0      0.00%     67.41% # Class of committed instruction
system.cpu.op_class_0::SimdAlu                 154720      0.14%     67.55% # Class of committed instruction
system.cpu.op_class_0::SimdCmp                 120626      0.11%     67.66% # Class of committed instruction
system.cpu.op_class_0::SimdCvt                      0      0.00%     67.66% # Class of committed instruction
system.cpu.op_class_0::SimdMisc                 44544      0.04%     67.70% # Class of committed instruction
system.cpu.op_class_0::SimdMult                     0      0.00%     67.70% # Class of committed instruction
system.cpu.op_class_0::SimdMultAcc                  0      0.00%     67.70% # Class of committed instruction
system.cpu.op_class_0::SimdShift                    0      0.00%     67.70% # Class of committed instruction
system.cpu.op_class_0::SimdShiftAcc                 0      0.00%     67.70% # Class of committed instruction
system.cpu.op_class_0::SimdDiv                      0      0.00%     67.70% # Class of committed instruction
system.cpu.op_class_0::SimdSqrt                     0      0.00%     67.70% # Class of committed instruction
system.cpu.op_class_0::SimdFloatAdd                 0      0.00%     67.70% # Class of committed instruction
system.cpu.op_class_0::SimdFloatAlu                 0      0.00%     67.70% # Class of committed instruction
system.cpu.op_class_0::SimdFloatCmp                 0      0.00%     67.70% # Class of committed instruction
system.cpu.op_class_0::SimdFloatCvt                 0      0.00%     67.70% # Class of committed instruction
system.cpu.op_class_0::SimdFloatDiv                 0      0.00%     67.70% # Class of committed instruction
system.cpu.op_class_0::SimdFloatMisc           166465      0.15%     67.85% # Class of committed instruction
system.cpu.op_class_0::SimdFloatMult                0      0.00%     67.85% # Class of committed instruction
system.cpu.op_class_0::SimdFloatMultAcc             0      0.00%     67.85% # Class of committed instruction
system.cpu.op_class_0::SimdFloatSqrt                0      0.00%     67.85% # Class of committed instruction
system.cpu.op_class_0::SimdReduceAdd                0      0.00%     67.85% # Class of committed instruction
system.cpu.op_class_0::SimdReduceAlu                0      0.00%     67.85% # Class of committed instruction
system.cpu.op_class_0::SimdReduceCmp                0      0.00%     67.85% # Class of committed instruction
system.cpu.op_class_0::SimdFloatReduceAdd            0      0.00%     67.85% # Class of committed instruction
system.cpu.op_class_0::SimdFloatReduceCmp            0      0.00%     67.85% # Class of committed instruction
system.cpu.op_class_0::SimdAes                      0      0.00%     67.85% # Class of committed instruction
system.cpu.op_class_0::SimdAesMix                   0      0.00%     67.85% # Class of committed instruction
system.cpu.op_class_0::SimdSha1Hash                 0      0.00%     67.85% # Class of committed instruction
system.cpu.op_class_0::SimdSha1Hash2                0      0.00%     67.85% # Class of committed instruction
system.cpu.op_class_0::SimdSha256Hash               0      0.00%     67.85% # Class of committed instruction
system.cpu.op_class_0::SimdSha256Hash2              0      0.00%     67.85% # Class of committed instruction
system.cpu.op_class_0::SimdShaSigma2                0      0.00%     67.85% # Class of committed instruction
system.cpu.op_class_0::SimdShaSigma3                0      0.00%     67.85% # Class of committed instruction
system.cpu.op_class_0::SimdPredAlu                  0      0.00%     67.85% # Class of committed instruction
system.cpu.op_class_0::MemRead               20646465     18.87%     86.72% # Class of committed instruction
system.cpu.op_class_0::MemWrite              14534197     13.28%    100.00% # Class of committed instruction
system.cpu.op_class_0::FloatMemRead                 0      0.00%    100.00% # Class of committed instruction
system.cpu.op_class_0::FloatMemWrite                0      0.00%    100.00% # Class of committed instruction
system.cpu.op_class_0::IprAccess                    0      0.00%    100.00% # Class of committed instruction
system.cpu.op_class_0::InstPrefetch                 0      0.00%    100.00% # Class of committed instruction
system.cpu.op_class_0::total                109431937                       # Class of committed instruction
system.cpu.tickCycles                       108379465                       # Number of cycles that the object actually ticked
system.cpu.workload.numSyscalls                    86                       # Number of system calls
system.membus.snoop_filter.hit_multi_requests            0                       # Number of requests hitting in the snoop filter with multiple (>1) holders of the requested data.
system.membus.snoop_filter.hit_multi_snoops            0                       # Number of snoops hitting in the snoop filter with multiple (>1) holders of the requested data.
system.membus.snoop_filter.hit_single_requests            0                       # Number of requests hitting in the snoop filter with a single holder of the requested data.
system.membus.snoop_filter.hit_single_snoops            0                       # Number of snoops hitting in the snoop filter with a single holder of the requested data.
system.membus.snoop_filter.tot_requests         10028                       # Total number of requests made to the snoop filter.
system.membus.snoop_filter.tot_snoops               0                       # Total number of snoops made to the snoop filter.
system.tol2bus.snoop_filter.hit_multi_requests           23                       # Number of requests hitting in the snoop filter with multiple (>1) holders of the requested data.
system.tol2bus.snoop_filter.hit_multi_snoops            0                       # Number of snoops hitting in the snoop filter with multiple (>1) holders of the requested data.
system.tol2bus.snoop_filter.hit_single_requests        16730                       # Number of requests hitting in the snoop filter with a single holder of the requested data.
system.tol2bus.snoop_filter.hit_single_snoops            0                       # Number of snoops hitting in the snoop filter with a single holder of the requested data.
system.tol2bus.snoop_filter.tot_requests        34710                       # Total number of requests made to the snoop filter.
system.tol2bus.snoop_filter.tot_snoops              0                       # Total number of snoops made to the snoop filter.
system.membus.pwrStateResidencyTicks::UNDEFINED  55347023000                       # Cumulative time (in ticks) in various power states
system.membus.trans_dist::ReadResp                315                       # Transaction distribution
system.membus.trans_dist::ReadExReq              9713                       # Transaction distribution
system.membus.trans_dist::ReadExResp             9713                       # Transaction distribution
system.membus.trans_dist::ReadSharedReq           315                       # Transaction distribution
system.membus.pkt_count_system.l2.mem_side::system.mem_ctrls.port        20056                       # Packet count per connected master and slave (bytes)
system.membus.pkt_count::total                  20056                       # Packet count per connected master and slave (bytes)
system.membus.pkt_size_system.l2.mem_side::system.mem_ctrls.port      2567168                       # Cumulative packet size per connected master and slave (bytes)
system.membus.pkt_size::total                 2567168                       # Cumulative packet size per connected master and slave (bytes)
system.membus.snoops                                0                       # Total snoops (count)
system.membus.snoopTraffic                          0                       # Total snoop traffic (bytes)
system.membus.snoop_fanout::samples             10028                       # Request fanout histogram
system.membus.snoop_fanout::mean                    0                       # Request fanout histogram
system.membus.snoop_fanout::stdev                   0                       # Request fanout histogram
system.membus.snoop_fanout::underflows              0      0.00%      0.00% # Request fanout histogram
system.membus.snoop_fanout::0                   10028    100.00%    100.00% # Request fanout histogram
system.membus.snoop_fanout::1                       0      0.00%    100.00% # Request fanout histogram
system.membus.snoop_fanout::overflows               0      0.00%    100.00% # Request fanout histogram
system.membus.snoop_fanout::min_value               0                       # Request fanout histogram
system.membus.snoop_fanout::max_value               0                       # Request fanout histogram
system.membus.snoop_fanout::total               10028                       # Request fanout histogram
system.membus.respLayer1.occupancy          174945500                       # Layer occupancy (ticks)
system.membus.respLayer1.utilization              0.3                       # Layer utilization (%)
system.membus.reqLayer0.occupancy            12476000                       # Layer occupancy (ticks)
system.membus.reqLayer0.utilization               0.0                       # Layer utilization (%)
system.tol2bus.pwrStateResidencyTicks::UNDEFINED  55347023000                       # Cumulative time (in ticks) in various power states
system.tol2bus.trans_dist::ReadResp              8272                       # Transaction distribution
system.tol2bus.trans_dist::WritebackDirty        16646                       # Transaction distribution
system.tol2bus.trans_dist::WritebackClean            3                       # Transaction distribution
system.tol2bus.trans_dist::CleanEvict              75                       # Transaction distribution
system.tol2bus.trans_dist::ReadExReq             9714                       # Transaction distribution
system.tol2bus.trans_dist::ReadExResp            9714                       # Transaction distribution
system.tol2bus.trans_dist::ReadCleanReq           241                       # Transaction distribution
system.tol2bus.trans_dist::ReadSharedReq         8031                       # Transaction distribution
system.tol2bus.pkt_count_system.cpu.icache.mem_side::system.l2.cpu_side          485                       # Packet count per connected master and slave (bytes)
system.tol2bus.pkt_count_system.cpu.dcache.mem_side::system.l2.cpu_side        52211                       # Packet count per connected master and slave (bytes)
system.tol2bus.pkt_count::total                 52696                       # Packet count per connected master and slave (bytes)
system.tol2bus.pkt_size_system.cpu.icache.mem_side::system.l2.cpu_side        62464                       # Cumulative packet size per connected master and slave (bytes)
system.tol2bus.pkt_size_system.cpu.dcache.mem_side::system.l2.cpu_side      8804096                       # Cumulative packet size per connected master and slave (bytes)
system.tol2bus.pkt_size::total                8866560                       # Cumulative packet size per connected master and slave (bytes)
system.tol2bus.snoops                               0                       # Total snoops (count)
system.tol2bus.snoopTraffic                         0                       # Total snoop traffic (bytes)
system.tol2bus.snoop_fanout::samples            17986                       # Request fanout histogram
system.tol2bus.snoop_fanout::mean            0.001612                       # Request fanout histogram
system.tol2bus.snoop_fanout::stdev           0.040123                       # Request fanout histogram
system.tol2bus.snoop_fanout::underflows             0      0.00%      0.00% # Request fanout histogram
system.tol2bus.snoop_fanout::0                  17957     99.84%     99.84% # Request fanout histogram
system.tol2bus.snoop_fanout::1                     29      0.16%    100.00% # Request fanout histogram
system.tol2bus.snoop_fanout::2                      0      0.00%    100.00% # Request fanout histogram
system.tol2bus.snoop_fanout::overflows              0      0.00%    100.00% # Request fanout histogram
system.tol2bus.snoop_fanout::min_value              0                       # Request fanout histogram
system.tol2bus.snoop_fanout::max_value              1                       # Request fanout histogram
system.tol2bus.snoop_fanout::total              17986                       # Request fanout histogram
system.tol2bus.reqLayer0.occupancy           83951000                       # Layer occupancy (ticks)
system.tol2bus.reqLayer0.utilization              0.2                       # Layer utilization (%)
system.tol2bus.respLayer1.occupancy          79854995                       # Layer occupancy (ticks)
system.tol2bus.respLayer1.utilization             0.1                       # Layer utilization (%)
system.tol2bus.respLayer0.occupancy           1084500                       # Layer occupancy (ticks)
system.tol2bus.respLayer0.utilization             0.0                       # Layer utilization (%)
system.voltage_domain.voltage                       1                       # Voltage in Volts
system.clk_domain.clock                          1000                       # Clock period in ticks
system.l2.pwrStateResidencyTicks::UNDEFINED  55347023000                       # Cumulative time (in ticks) in various power states
system.l2.demand_hits::.cpu.inst                    9                       # number of demand (read+write) hits
system.l2.demand_hits::.cpu.data                 7944                       # number of demand (read+write) hits
system.l2.demand_hits::total                     7953                       # number of demand (read+write) hits
system.l2.overall_hits::.cpu.inst                   9                       # number of overall hits
system.l2.overall_hits::.cpu.data                7944                       # number of overall hits
system.l2.overall_hits::total                    7953                       # number of overall hits
system.l2.demand_misses::.cpu.inst                232                       # number of demand (read+write) misses
system.l2.demand_misses::.cpu.data               9801                       # number of demand (read+write) misses
system.l2.demand_misses::total                  10033                       # number of demand (read+write) misses
system.l2.overall_misses::.cpu.inst               232                       # number of overall misses
system.l2.overall_misses::.cpu.data              9801                       # number of overall misses
system.l2.overall_misses::total                 10033                       # number of overall misses
system.l2.demand_miss_latency::.cpu.inst     22057000                       # number of demand (read+write) miss cycles
system.l2.demand_miss_latency::.cpu.data   1006376000                       # number of demand (read+write) miss cycles
system.l2.demand_miss_latency::total       1028433000                       # number of demand (read+write) miss cycles
system.l2.overall_miss_latency::.cpu.inst     22057000                       # number of overall miss cycles
system.l2.overall_miss_latency::.cpu.data   1006376000                       # number of overall miss cycles
system.l2.overall_miss_latency::total      1028433000                       # number of overall miss cycles
system.l2.demand_accesses::.cpu.inst              241                       # number of demand (read+write) accesses
system.l2.demand_accesses::.cpu.data            17745                       # number of demand (read+write) accesses
system.l2.demand_accesses::total                17986                       # number of demand (read+write) accesses
system.l2.overall_accesses::.cpu.inst             241                       # number of overall (read+write) accesses
system.l2.overall_accesses::.cpu.data           17745                       # number of overall (read+write) accesses
system.l2.overall_accesses::total               17986                       # number of overall (read+write) accesses
system.l2.demand_miss_rate::.cpu.inst        0.962656                       # miss rate for demand accesses
system.l2.demand_miss_rate::.cpu.data        0.552325                       # miss rate for demand accesses
system.l2.demand_miss_rate::total            0.557823                       # miss rate for demand accesses
system.l2.overall_miss_rate::.cpu.inst       0.962656                       # miss rate for overall accesses
system.l2.overall_miss_rate::.cpu.data       0.552325                       # miss rate for overall accesses
system.l2.overall_miss_rate::total           0.557823                       # miss rate for overall accesses
system.l2.demand_avg_miss_latency::.cpu.inst 95073.275862                       # average overall miss latency
system.l2.demand_avg_miss_latency::.cpu.data 102680.950923                       # average overall miss latency
system.l2.demand_avg_miss_latency::total 102505.033390                       # average overall miss latency
system.l2.overall_avg_miss_latency::.cpu.inst 95073.275862                       # average overall miss latency
system.l2.overall_avg_miss_latency::.cpu.data 102680.950923                       # average overall miss latency
system.l2.overall_avg_miss_latency::total 102505.033390                       # average overall miss latency
system.l2.blocked_cycles::no_mshrs                  0                       # number of cycles access was blocked
system.l2.blocked_cycles::no_targets                0                       # number of cycles access was blocked
system.l2.blocked::no_mshrs                         0                       # number of cycles access was blocked
system.l2.blocked::no_targets                       0                       # number of cycles access was blocked
system.l2.avg_blocked_cycles::no_mshrs            nan                       # average number of cycles each access was blocked
system.l2.avg_blocked_cycles::no_targets          nan                       # average number of cycles each access was blocked
system.l2.demand_mshr_hits::.cpu.data               5                       # number of demand (read+write) MSHR hits
system.l2.demand_mshr_hits::total                   5                       # number of demand (read+write) MSHR hits
system.l2.overall_mshr_hits::.cpu.data              5                       # number of overall MSHR hits
system.l2.overall_mshr_hits::total                  5                       # number of overall MSHR hits
system.l2.demand_mshr_misses::.cpu.inst           232                       # number of demand (read+write) MSHR misses
system.l2.demand_mshr_misses::.cpu.data          9796                       # number of demand (read+write) MSHR misses
system.l2.demand_mshr_misses::total             10028                       # number of demand (read+write) MSHR misses
system.l2.overall_mshr_misses::.cpu.inst          232                       # number of overall MSHR misses
system.l2.overall_mshr_misses::.cpu.data         9796                       # number of overall MSHR misses
system.l2.overall_mshr_misses::total            10028                       # number of overall MSHR misses
system.l2.demand_mshr_miss_latency::.cpu.inst     19737000                       # number of demand (read+write) MSHR miss cycles
system.l2.demand_mshr_miss_latency::.cpu.data    907996500                       # number of demand (read+write) MSHR miss cycles
system.l2.demand_mshr_miss_latency::total    927733500                       # number of demand (read+write) MSHR miss cycles
system.l2.overall_mshr_miss_latency::.cpu.inst     19737000                       # number of overall MSHR miss cycles
system.l2.overall_mshr_miss_latency::.cpu.data    907996500                       # number of overall MSHR miss cycles
system.l2.overall_mshr_miss_latency::total    927733500                       # number of overall MSHR miss cycles
system.l2.demand_mshr_miss_rate::.cpu.inst     0.962656                       # mshr miss rate for demand accesses
system.l2.demand_mshr_miss_rate::.cpu.data     0.552043                       # mshr miss rate for demand accesses
system.l2.demand_mshr_miss_rate::total       0.557545                       # mshr miss rate for demand accesses
system.l2.overall_mshr_miss_rate::.cpu.inst     0.962656                       # mshr miss rate for overall accesses
system.l2.overall_mshr_miss_rate::.cpu.data     0.552043                       # mshr miss rate for overall accesses
system.l2.overall_mshr_miss_rate::total      0.557545                       # mshr miss rate for overall accesses
system.l2.demand_avg_mshr_miss_latency::.cpu.inst 85073.275862                       # average overall mshr miss latency
system.l2.demand_avg_mshr_miss_latency::.cpu.data 92690.536954                       # average overall mshr miss latency
system.l2.demand_avg_mshr_miss_latency::total 92514.309932                       # average overall mshr miss latency
system.l2.overall_avg_mshr_miss_latency::.cpu.inst 85073.275862                       # average overall mshr miss latency
system.l2.overall_avg_mshr_miss_latency::.cpu.data 92690.536954                       # average overall mshr miss latency
system.l2.overall_avg_mshr_miss_latency::total 92514.309932                       # average overall mshr miss latency
system.l2.replacements                              0                       # number of replacements
system.l2.WritebackDirty_hits::.writebacks        16646                       # number of WritebackDirty hits
system.l2.WritebackDirty_hits::total            16646                       # number of WritebackDirty hits
system.l2.WritebackDirty_accesses::.writebacks        16646                       # number of WritebackDirty accesses(hits+misses)
system.l2.WritebackDirty_accesses::total        16646                       # number of WritebackDirty accesses(hits+misses)
system.l2.WritebackClean_hits::.writebacks            3                       # number of WritebackClean hits
system.l2.WritebackClean_hits::total                3                       # number of WritebackClean hits
system.l2.WritebackClean_accesses::.writebacks            3                       # number of WritebackClean accesses(hits+misses)
system.l2.WritebackClean_accesses::total            3                       # number of WritebackClean accesses(hits+misses)
system.l2.ReadExReq_hits::.cpu.data                 1                       # number of ReadExReq hits
system.l2.ReadExReq_hits::total                     1                       # number of ReadExReq hits
system.l2.ReadExReq_misses::.cpu.data            9713                       # number of ReadExReq misses
system.l2.ReadExReq_misses::total                9713                       # number of ReadExReq misses
system.l2.ReadExReq_miss_latency::.cpu.data    997317000                       # number of ReadExReq miss cycles
system.l2.ReadExReq_miss_latency::total     997317000                       # number of ReadExReq miss cycles
system.l2.ReadExReq_accesses::.cpu.data          9714                       # number of ReadExReq accesses(hits+misses)
system.l2.ReadExReq_accesses::total              9714                       # number of ReadExReq accesses(hits+misses)
system.l2.ReadExReq_miss_rate::.cpu.data     0.999897                       # miss rate for ReadExReq accesses
system.l2.ReadExReq_miss_rate::total         0.999897                       # miss rate for ReadExReq accesses
system.l2.ReadExReq_avg_miss_latency::.cpu.data 102678.575106                       # average ReadExReq miss latency
system.l2.ReadExReq_avg_miss_latency::total 102678.575106                       # average ReadExReq miss latency
system.l2.ReadExReq_mshr_misses::.cpu.data         9713                       # number of ReadExReq MSHR misses
system.l2.ReadExReq_mshr_misses::total           9713                       # number of ReadExReq MSHR misses
system.l2.ReadExReq_mshr_miss_latency::.cpu.data    900187000                       # number of ReadExReq MSHR miss cycles
system.l2.ReadExReq_mshr_miss_latency::total    900187000                       # number of ReadExReq MSHR miss cycles
system.l2.ReadExReq_mshr_miss_rate::.cpu.data     0.999897                       # mshr miss rate for ReadExReq accesses
system.l2.ReadExReq_mshr_miss_rate::total     0.999897                       # mshr miss rate for ReadExReq accesses
system.l2.ReadExReq_avg_mshr_miss_latency::.cpu.data 92678.575106                       # average ReadExReq mshr miss latency
system.l2.ReadExReq_avg_mshr_miss_latency::total 92678.575106                       # average ReadExReq mshr miss latency
system.l2.ReadCleanReq_hits::.cpu.inst              9                       # number of ReadCleanReq hits
system.l2.ReadCleanReq_hits::total                  9                       # number of ReadCleanReq hits
system.l2.ReadCleanReq_misses::.cpu.inst          232                       # number of ReadCleanReq misses
system.l2.ReadCleanReq_misses::total              232                       # number of ReadCleanReq misses
system.l2.ReadCleanReq_miss_latency::.cpu.inst     22057000                       # number of ReadCleanReq miss cycles
system.l2.ReadCleanReq_miss_latency::total     22057000                       # number of ReadCleanReq miss cycles
system.l2.ReadCleanReq_accesses::.cpu.inst          241                       # number of ReadCleanReq accesses(hits+misses)
system.l2.ReadCleanReq_accesses::total            241                       # number of ReadCleanReq accesses(hits+misses)
system.l2.ReadCleanReq_miss_rate::.cpu.inst     0.962656                       # miss rate for ReadCleanReq accesses
system.l2.ReadCleanReq_miss_rate::total      0.962656                       # miss rate for ReadCleanReq accesses
system.l2.ReadCleanReq_avg_miss_latency::.cpu.inst 95073.275862                       # average ReadCleanReq miss latency
system.l2.ReadCleanReq_avg_miss_latency::total 95073.275862                       # average ReadCleanReq miss latency
system.l2.ReadCleanReq_mshr_misses::.cpu.inst          232                       # number of ReadCleanReq MSHR misses
system.l2.ReadCleanReq_mshr_misses::total          232                       # number of ReadCleanReq MSHR misses
system.l2.ReadCleanReq_mshr_miss_latency::.cpu.inst     19737000                       # number of ReadCleanReq MSHR miss cycles
system.l2.ReadCleanReq_mshr_miss_latency::total     19737000                       # number of ReadCleanReq MSHR miss cycles
system.l2.ReadCleanReq_mshr_miss_rate::.cpu.inst     0.962656                       # mshr miss rate for ReadCleanReq accesses
system.l2.ReadCleanReq_mshr_miss_rate::total     0.962656                       # mshr miss rate for ReadCleanReq accesses
system.l2.ReadCleanReq_avg_mshr_miss_latency::.cpu.inst 85073.275862                       # average ReadCleanReq mshr miss latency
system.l2.ReadCleanReq_avg_mshr_miss_latency::total 85073.275862                       # average ReadCleanReq mshr miss latency
system.l2.ReadSharedReq_hits::.cpu.data          7943                       # number of ReadSharedReq hits
system.l2.ReadSharedReq_hits::total              7943                       # number of ReadSharedReq hits
system.l2.ReadSharedReq_misses::.cpu.data           88                       # number of ReadSharedReq misses
system.l2.ReadSharedReq_misses::total              88                       # number of ReadSharedReq misses
system.l2.ReadSharedReq_miss_latency::.cpu.data      9059000                       # number of ReadSharedReq miss cycles
system.l2.ReadSharedReq_miss_latency::total      9059000                       # number of ReadSharedReq miss cycles
system.l2.ReadSharedReq_accesses::.cpu.data         8031                       # number of ReadSharedReq accesses(hits+misses)
system.l2.ReadSharedReq_accesses::total          8031                       # number of ReadSharedReq accesses(hits+misses)
system.l2.ReadSharedReq_miss_rate::.cpu.data     0.010958                       # miss rate for ReadSharedReq accesses
system.l2.ReadSharedReq_miss_rate::total     0.010958                       # miss rate for ReadSharedReq accesses
system.l2.ReadSharedReq_avg_miss_latency::.cpu.data 102943.181818                       # average ReadSharedReq miss latency
system.l2.ReadSharedReq_avg_miss_latency::total 102943.181818                       # average ReadSharedReq miss latency
system.l2.ReadSharedReq_mshr_hits::.cpu.data            5                       # number of ReadSharedReq MSHR hits
system.l2.ReadSharedReq_mshr_hits::total            5                       # number of ReadSharedReq MSHR hits
system.l2.ReadSharedReq_mshr_misses::.cpu.data           83                       # number of ReadSharedReq MSHR misses
system.l2.ReadSharedReq_mshr_misses::total           83                       # number of ReadSharedReq MSHR misses
system.l2.ReadSharedReq_mshr_miss_latency::.cpu.data      7809500                       # number of ReadSharedReq MSHR miss cycles
system.l2.ReadSharedReq_mshr_miss_latency::total      7809500                       # number of ReadSharedReq MSHR miss cycles
system.l2.ReadSharedReq_mshr_miss_rate::.cpu.data     0.010335                       # mshr miss rate for ReadSharedReq accesses
system.l2.ReadSharedReq_mshr_miss_rate::total     0.010335                       # mshr miss rate for ReadSharedReq accesses
system.l2.ReadSharedReq_avg_mshr_miss_latency::.cpu.data 94090.361446                       # average ReadSharedReq mshr miss latency
system.l2.ReadSharedReq_avg_mshr_miss_latency::total 94090.361446                       # average ReadSharedReq mshr miss latency
system.l2.tags.pwrStateResidencyTicks::UNDEFINED  55347023000                       # Cumulative time (in ticks) in various power states
system.l2.tags.tagsinuse                  7029.658116                       # Cycle average of tags in use
system.l2.tags.total_refs                       34682                       # Total number of references to valid blocks.
system.l2.tags.sampled_refs                     10028                       # Sample count of references to valid blocks.
system.l2.tags.avg_refs                      3.458516                       # Average number of references to valid blocks.
system.l2.tags.warmup_cycle                     92000                       # Cycle when the warmup percentage was hit.
system.l2.tags.occ_blocks::.cpu.inst       231.673818                       # Average occupied blocks per requestor
system.l2.tags.occ_blocks::.cpu.data      6797.984298                       # Average occupied blocks per requestor
system.l2.tags.occ_percent::.cpu.inst        0.014140                       # Average percentage of cache occupancy
system.l2.tags.occ_percent::.cpu.data        0.414916                       # Average percentage of cache occupancy
system.l2.tags.occ_percent::total            0.429056                       # Average percentage of cache occupancy
system.l2.tags.occ_task_id_blocks::1024         10028                       # Occupied blocks per task id
system.l2.tags.age_task_id_blocks_1024::0            1                       # Occupied blocks per task id
system.l2.tags.age_task_id_blocks_1024::1            8                       # Occupied blocks per task id
system.l2.tags.age_task_id_blocks_1024::2           89                       # Occupied blocks per task id
system.l2.tags.age_task_id_blocks_1024::3          888                       # Occupied blocks per task id
system.l2.tags.age_task_id_blocks_1024::4         9042                       # Occupied blocks per task id
system.l2.tags.occ_task_id_percent::1024     0.612061                       # Percentage of cache occupancy per task id
system.l2.tags.tag_accesses                    148776                       # Number of tag accesses
system.l2.tags.data_accesses                   148776                       # Number of data accesses
system.cpu_voltage_domain.voltage                   1                       # Voltage in Volts
system.mem_ctrls.pwrStateResidencyTicks::UNDEFINED  55347023000                       # Cumulative time (in ticks) in various power states
system.mem_ctrls.bytes_read::.cpu.inst          59392                       # Number of bytes read from this memory
system.mem_ctrls.bytes_read::.cpu.data        2507776                       # Number of bytes read from this memory
system.mem_ctrls.bytes_read::total            2567168                       # Number of bytes read from this memory
system.mem_ctrls.bytes_inst_read::.cpu.inst        59392                       # Number of instructions bytes read from this memory
system.mem_ctrls.bytes_inst_read::total         59392                       # Number of instructions bytes read from this memory
system.mem_ctrls.num_reads::.cpu.inst             232                       # Number of read requests responded to by this memory
system.mem_ctrls.num_reads::.cpu.data            9796                       # Number of read requests responded to by this memory
system.mem_ctrls.num_reads::total               10028                       # Number of read requests responded to by this memory
system.mem_ctrls.bw_read::.cpu.inst           1073084                       # Total read bandwidth from this memory (bytes/s)
system.mem_ctrls.bw_read::.cpu.data          45310043                       # Total read bandwidth from this memory (bytes/s)
system.mem_ctrls.bw_read::total              46383127                       # Total read bandwidth from this memory (bytes/s)
system.mem_ctrls.bw_inst_read::.cpu.inst      1073084                       # Instruction read bandwidth from this memory (bytes/s)
system.mem_ctrls.bw_inst_read::total          1073084                       # Instruction read bandwidth from this memory (bytes/s)
system.mem_ctrls.bw_total::.cpu.inst          1073084                       # Total bandwidth to/from this memory (bytes/s)
system.mem_ctrls.bw_total::.cpu.data         45310043                       # Total bandwidth to/from this memory (bytes/s)
system.mem_ctrls.bw_total::total             46383127                       # Total bandwidth to/from this memory (bytes/s)
system.mem_ctrls.avgPriority_.cpu.inst::samples       928.00                       # Average QoS priority value for accepted requests
system.mem_ctrls.avgPriority_.cpu.data::samples     39184.00                       # Average QoS priority value for accepted requests
system.mem_ctrls.priorityMinLatency      0.000000018750                       # per QoS priority minimum request to response latency (s)
system.mem_ctrls.priorityMaxLatency      0.000000677500                       # per QoS priority maximum request to response latency (s)
system.mem_ctrls.numReadWriteTurnArounds            0                       # Number of turnarounds from READ to WRITE
system.mem_ctrls.numWriteReadTurnArounds            0                       # Number of turnarounds from WRITE to READ
system.mem_ctrls.numStayReadState               64205                       # Number of times bus staying in READ state
system.mem_ctrls.numStayWriteState                  0                       # Number of times bus staying in WRITE state
system.mem_ctrls.readReqs                       10028                       # Number of read requests accepted
system.mem_ctrls.writeReqs                          0                       # Number of write requests accepted
system.mem_ctrls.readBursts                     40112                       # Number of DRAM read bursts, including those serviced by the write queue
system.mem_ctrls.writeBursts                        0                       # Number of DRAM write bursts, including those merged in the write queue
system.mem_ctrls.servicedByWrQ                      0                       # Number of DRAM read bursts serviced by the write queue
system.mem_ctrls.mergedWrBursts                     0                       # Number of DRAM write bursts merged with an existing one
system.mem_ctrls.neitherReadNorWriteReqs            0                       # Number of requests that are neither read nor write
system.mem_ctrls.perBankRdBursts::0              2488                       # Per bank write bursts
system.mem_ctrls.perBankRdBursts::1              2380                       # Per bank write bursts
system.mem_ctrls.perBankRdBursts::2              2360                       # Per bank write bursts
system.mem_ctrls.perBankRdBursts::3              2648                       # Per bank write bursts
system.mem_ctrls.perBankRdBursts::4              2684                       # Per bank write bursts
system.mem_ctrls.perBankRdBursts::5              2440                       # Per bank write bursts
system.mem_ctrls.perBankRdBursts::6              2432                       # Per bank write bursts
system.mem_ctrls.perBankRdBursts::7              2472                       # Per bank write bursts
system.mem_ctrls.perBankRdBursts::8              2472                       # Per bank write bursts
system.mem_ctrls.perBankRdBursts::9              2512                       # Per bank write bursts
system.mem_ctrls.perBankRdBursts::10             2512                       # Per bank write bursts
system.mem_ctrls.perBankRdBursts::11             2540                       # Per bank write bursts
system.mem_ctrls.perBankRdBursts::12             2556                       # Per bank write bursts
system.mem_ctrls.perBankRdBursts::13             2484                       # Per bank write bursts
system.mem_ctrls.perBankRdBursts::14             2608                       # Per bank write bursts
system.mem_ctrls.perBankRdBursts::15             2524                       # Per bank write bursts
system.mem_ctrls.perBankWrBursts::0                 0                       # Per bank write bursts
system.mem_ctrls.perBankWrBursts::1                 0                       # Per bank write bursts
system.mem_ctrls.perBankWrBursts::2                 0                       # Per bank write bursts
system.mem_ctrls.perBankWrBursts::3                 0                       # Per bank write bursts
system.mem_ctrls.perBankWrBursts::4                 0                       # Per bank write bursts
system.mem_ctrls.perBankWrBursts::5                 0                       # Per bank write bursts
system.mem_ctrls.perBankWrBursts::6                 0                       # Per bank write bursts
system.mem_ctrls.perBankWrBursts::7                 0                       # Per bank write bursts
system.mem_ctrls.perBankWrBursts::8                 0                       # Per bank write bursts
system.mem_ctrls.perBankWrBursts::9                 0                       # Per bank write bursts
system.mem_ctrls.perBankWrBursts::10                0                       # Per bank write bursts
system.mem_ctrls.perBankWrBursts::11                0                       # Per bank write bursts
system.mem_ctrls.perBankWrBursts::12                0                       # Per bank write bursts
system.mem_ctrls.perBankWrBursts::13                0                       # Per bank write bursts
system.mem_ctrls.perBankWrBursts::14                0                       # Per bank write bursts
system.mem_ctrls.perBankWrBursts::15                0                       # Per bank write bursts
system.mem_ctrls.avgRdQLen                       4.00                       # Average read queue length when enqueuing
system.mem_ctrls.avgWrQLen                       0.00                       # Average write queue length when enqueuing
system.mem_ctrls.totQLat                   1002257000                       # Total ticks spent queuing
system.mem_ctrls.totBusLat                  200560000                       # Total ticks spent in databus transfers
system.mem_ctrls.totMemAccLat              1754357000                       # Total ticks spent from burst creation until serviced by the DRAM
system.mem_ctrls.avgQLat                     24986.46                       # Average queueing delay per DRAM burst
system.mem_ctrls.avgBusLat                    5000.00                       # Average bus latency per DRAM burst
system.mem_ctrls.avgMemAccLat                43736.46                       # Average memory access latency per DRAM burst
system.mem_ctrls.numRdRetry                         0                       # Number of times read queue was full causing retry
system.mem_ctrls.numWrRetry                         0                       # Number of times write queue was full causing retry
system.mem_ctrls.readRowHits                    32344                       # Number of row buffer hits during reads
system.mem_ctrls.writeRowHits                       0                       # Number of row buffer hits during writes
system.mem_ctrls.readRowHitRate                 80.63                       # Row buffer hit rate for reads
system.mem_ctrls.writeRowHitRate                  nan                       # Row buffer hit rate for writes
system.mem_ctrls.readPktSize::0                     0                       # Read request sizes (log2)
system.mem_ctrls.readPktSize::1                     0                       # Read request sizes (log2)
system.mem_ctrls.readPktSize::2                     0                       # Read request sizes (log2)
system.mem_ctrls.readPktSize::3                     0                       # Read request sizes (log2)
system.mem_ctrls.readPktSize::4                     0                       # Read request sizes (log2)
system.mem_ctrls.readPktSize::5                     0                       # Read request sizes (log2)
system.mem_ctrls.readPktSize::6                 40112                       # Read request sizes (log2)
system.mem_ctrls.writePktSize::0                    0                       # Write request sizes (log2)
system.mem_ctrls.writePktSize::1                    0                       # Write request sizes (log2)
system.mem_ctrls.writePktSize::2                    0                       # Write request sizes (log2)
system.mem_ctrls.writePktSize::3                    0                       # Write request sizes (log2)
system.mem_ctrls.writePktSize::4                    0                       # Write request sizes (log2)
system.mem_ctrls.writePktSize::5                    0                       # Write request sizes (log2)
system.mem_ctrls.writePktSize::6                    0                       # Write request sizes (log2)
system.mem_ctrls.rdQLenPdf::0                    9991                       # What read queue length does an incoming req see
system.mem_ctrls.rdQLenPdf::1                    9992                       # What read queue length does an incoming req see
system.mem_ctrls.rdQLenPdf::2                    9992                       # What read queue length does an incoming req see
system.mem_ctrls.rdQLenPdf::3                    9993                       # What read queue length does an incoming req see
system.mem_ctrls.rdQLenPdf::4                      35                       # What read queue length does an incoming req see
system.mem_ctrls.rdQLenPdf::5                      34                       # What read queue length does an incoming req see
system.mem_ctrls.rdQLenPdf::6                      34                       # What read queue length does an incoming req see
system.mem_ctrls.rdQLenPdf::7                      34                       # What read queue length does an incoming req see
system.mem_ctrls.rdQLenPdf::8                       2                       # What read queue length does an incoming req see
system.mem_ctrls.rdQLenPdf::9                       2                       # What read queue length does an incoming req see
system.mem_ctrls.rdQLenPdf::10                      2                       # What read queue length does an incoming req see
system.mem_ctrls.rdQLenPdf::11                      1                       # What read queue length does an incoming req see
system.mem_ctrls.rdQLenPdf::12                      0                       # What read queue length does an incoming req see
system.mem_ctrls.rdQLenPdf::13                      0                       # What read queue length does an incoming req see
system.mem_ctrls.rdQLenPdf::14                      0                       # What read queue length does an incoming req see
system.mem_ctrls.rdQLenPdf::15                      0                       # What read queue length does an incoming req see
system.mem_ctrls.rdQLenPdf::16                      0                       # What read queue length does an incoming req see
system.mem_ctrls.rdQLenPdf::17                      0                       # What read queue length does an incoming req see
system.mem_ctrls.rdQLenPdf::18                      0                       # What read queue length does an incoming req see
system.mem_ctrls.rdQLenPdf::19                      0                       # What read queue length does an incoming req see
system.mem_ctrls.rdQLenPdf::20                      0                       # What read queue length does an incoming req see
system.mem_ctrls.rdQLenPdf::21                      0                       # What read queue length does an incoming req see
system.mem_ctrls.rdQLenPdf::22                      0                       # What read queue length does an incoming req see
system.mem_ctrls.rdQLenPdf::23                      0                       # What read queue length does an incoming req see
system.mem_ctrls.rdQLenPdf::24                      0                       # What read queue length does an incoming req see
system.mem_ctrls.rdQLenPdf::25                      0                       # What read queue length does an incoming req see
system.mem_ctrls.rdQLenPdf::26                      0                       # What read queue length does an incoming req see
system.mem_ctrls.rdQLenPdf::27                      0                       # What read queue length does an incoming req see
system.mem_ctrls.rdQLenPdf::28                      0                       # What read queue length does an incoming req see
system.mem_ctrls.rdQLenPdf::29                      0                       # What read queue length does an incoming req see
system.mem_ctrls.rdQLenPdf::30                      0                       # What read queue length does an incoming req see
system.mem_ctrls.rdQLenPdf::31                      0                       # What read queue length does an incoming req see
system.mem_ctrls.wrQLenPdf::0                       0                       # What write queue length does an incoming req see
system.mem_ctrls.wrQLenPdf::1                       0                       # What write queue length does an incoming req see
system.mem_ctrls.wrQLenPdf::2                       0                       # What write queue length does an incoming req see
system.mem_ctrls.wrQLenPdf::3                       0                       # What write queue length does an incoming req see
system.mem_ctrls.wrQLenPdf::4                       0                       # What write queue length does an incoming req see
system.mem_ctrls.wrQLenPdf::5                       0                       # What write queue length does an incoming req see
system.mem_ctrls.wrQLenPdf::6                       0                       # What write queue length does an incoming req see
system.mem_ctrls.wrQLenPdf::7                       0                       # What write queue length does an incoming req see
system.mem_ctrls.wrQLenPdf::8                       0                       # What write queue length does an incoming req see
system.mem_ctrls.wrQLenPdf::9                       0                       # What write queue length does an incoming req see
system.mem_ctrls.wrQLenPdf::10                      0                       # What write queue length does an incoming req see
system.mem_ctrls.wrQLenPdf::11                      0                       # What write queue length does an incoming req see
system.mem_ctrls.wrQLenPdf::12                      0                       # What write queue length does an incoming req see
system.mem_ctrls.wrQLenPdf::13                      0                       # What write queue length does an incoming req see
system.mem_ctrls.wrQLenPdf::14                      0                       # What write queue length does an incoming req see
system.mem_ctrls.wrQLenPdf::15                      0                       # What write queue length does an incoming req see
system.mem_ctrls.wrQLenPdf::16                      0                       # What write queue length does an incoming req see
system.mem_ctrls.wrQLenPdf::17                      0                       # What write queue length does an incoming req see
system.mem_ctrls.wrQLenPdf::18                      0                       # What write queue length does an incoming req see
system.mem_ctrls.wrQLenPdf::19                      0                       # What write queue length does an incoming req see
system.mem_ctrls.wrQLenPdf::20                      0                       # What write queue length does an incoming req see
system.mem_ctrls.wrQLenPdf::21                      0                       # What write queue length does an incoming req see
system.mem_ctrls.wrQLenPdf::22                      0                       # What write queue length does an incoming req see
system.mem_ctrls.wrQLenPdf::23                      0                       # What write queue length does an incoming req see
system.mem_ctrls.wrQLenPdf::24                      0                       # What write queue length does an incoming req see
system.mem_ctrls.wrQLenPdf::25                      0                       # What write queue length does an incoming req see
system.mem_ctrls.wrQLenPdf::26                      0                       # What write queue length does an incoming req see
system.mem_ctrls.wrQLenPdf::27                      0                       # What write queue length does an incoming req see
system.mem_ctrls.wrQLenPdf::28                      0                       # What write queue length does an incoming req see
system.mem_ctrls.wrQLenPdf::29                      0                       # What write queue length does an incoming req see
system.mem_ctrls.wrQLenPdf::30                      0                       # What write queue length does an incoming req see
system.mem_ctrls.wrQLenPdf::31                      0                       # What write queue length does an incoming req see
system.mem_ctrls.wrQLenPdf::32                      0                       # What write queue length does an incoming req see
system.mem_ctrls.wrQLenPdf::33                      0                       # What write queue length does an incoming req see
system.mem_ctrls.wrQLenPdf::34                      0                       # What write queue length does an incoming req see
system.mem_ctrls.wrQLenPdf::35                      0                       # What write queue length does an incoming req see
system.mem_ctrls.wrQLenPdf::36                      0                       # What write queue length does an incoming req see
system.mem_ctrls.wrQLenPdf::37                      0                       # What write queue length does an incoming req see
system.mem_ctrls.wrQLenPdf::38                      0                       # What write queue length does an incoming req see
system.mem_ctrls.wrQLenPdf::39                      0                       # What write queue length does an incoming req see
system.mem_ctrls.wrQLenPdf::40                      0                       # What write queue length does an incoming req see
system.mem_ctrls.wrQLenPdf::41                      0                       # What write queue length does an incoming req see
system.mem_ctrls.wrQLenPdf::42                      0                       # What write queue length does an incoming req see
system.mem_ctrls.wrQLenPdf::43                      0                       # What write queue length does an incoming req see
system.mem_ctrls.wrQLenPdf::44                      0                       # What write queue length does an incoming req see
system.mem_ctrls.wrQLenPdf::45                      0                       # What write queue length does an incoming req see
system.mem_ctrls.wrQLenPdf::46                      0                       # What write queue length does an incoming req see
system.mem_ctrls.wrQLenPdf::47                      0                       # What write queue length does an incoming req see
system.mem_ctrls.wrQLenPdf::48                      0                       # What write queue length does an incoming req see
system.mem_ctrls.wrQLenPdf::49                      0                       # What write queue length does an incoming req see
system.mem_ctrls.wrQLenPdf::50                      0                       # What write queue length does an incoming req see
system.mem_ctrls.wrQLenPdf::51                      0                       # What write queue length does an incoming req see
system.mem_ctrls.wrQLenPdf::52                      0                       # What write queue length does an incoming req see
system.mem_ctrls.wrQLenPdf::53                      0                       # What write queue length does an incoming req see
system.mem_ctrls.wrQLenPdf::54                      0                       # What write queue length does an incoming req see
system.mem_ctrls.wrQLenPdf::55                      0                       # What write queue length does an incoming req see
system.mem_ctrls.wrQLenPdf::56                      0                       # What write queue length does an incoming req see
system.mem_ctrls.wrQLenPdf::57                      0                       # What write queue length does an incoming req see
system.mem_ctrls.wrQLenPdf::58                      0                       # What write queue length does an incoming req see
system.mem_ctrls.wrQLenPdf::59                      0                       # What write queue length does an incoming req see
system.mem_ctrls.wrQLenPdf::60                      0                       # What write queue length does an incoming req see
system.mem_ctrls.wrQLenPdf::61                      0                       # What write queue length does an incoming req see
system.mem_ctrls.wrQLenPdf::62                      0                       # What write queue length does an incoming req see
system.mem_ctrls.wrQLenPdf::63                      0                       # What write queue length does an incoming req see
system.mem_ctrls.bytesPerActivate::samples         7768                       # Bytes accessed per row activation
system.mem_ctrls.bytesPerActivate::mean    330.479918                       # Bytes accessed per row activation
system.mem_ctrls.bytesPerActivate::gmean   306.731798                       # Bytes accessed per row activation
system.mem_ctrls.bytesPerActivate::stdev   152.521222                       # Bytes accessed per row activation
system.mem_ctrls.bytesPerActivate::0-127            4      0.05%      0.05% # Bytes accessed per row activation
system.mem_ctrls.bytesPerActivate::128-255            4      0.05%      0.10% # Bytes accessed per row activation
system.mem_ctrls.bytesPerActivate::256-383         6029     77.61%     77.72% # Bytes accessed per row activation
system.mem_ctrls.bytesPerActivate::512-639         1239     15.95%     93.67% # Bytes accessed per row activation
system.mem_ctrls.bytesPerActivate::768-895          451      5.81%     99.47% # Bytes accessed per row activation
system.mem_ctrls.bytesPerActivate::1024-1151           41      0.53%    100.00% # Bytes accessed per row activation
system.mem_ctrls.bytesPerActivate::total         7768                       # Bytes accessed per row activation
system.mem_ctrls.bytesReadDRAM                2567168                       # Total number of bytes read from DRAM
system.mem_ctrls.bytesReadWrQ                       0                       # Total number of bytes read from write queue
system.mem_ctrls.bytesWritten                       0                       # Total number of bytes written to DRAM
system.mem_ctrls.bytesReadSys                 2567168                       # Total read bytes from the system interface side
system.mem_ctrls.bytesWrittenSys                    0                       # Total written bytes from the system interface side
system.mem_ctrls.avgRdBW                        46.38                       # Average DRAM read bandwidth in MiByte/s
system.mem_ctrls.avgWrBW                         0.00                       # Average achieved write bandwidth in MiByte/s
system.mem_ctrls.avgRdBWSys                     46.38                       # Average system read bandwidth in MiByte/s
system.mem_ctrls.avgWrBWSys                      0.00                       # Average system write bandwidth in MiByte/s
system.mem_ctrls.peakBW                      12800.00                       # Theoretical peak bandwidth in MiByte/s
system.mem_ctrls.busUtil                         0.36                       # Data bus utilization in percentage
system.mem_ctrls.busUtilRead                     0.36                       # Data bus utilization in percentage for reads
system.mem_ctrls.busUtilWrite                    0.00                       # Data bus utilization in percentage for writes
system.mem_ctrls.totGap                   55338208000                       # Total gap between requests
system.mem_ctrls.avgGap                    5518369.37                       # Average gap between requests
system.mem_ctrls.masterReadBytes::.cpu.inst        59392                       # Per-master bytes read from memory
system.mem_ctrls.masterReadBytes::.cpu.data      2507776                       # Per-master bytes read from memory
system.mem_ctrls.masterReadRate::.cpu.inst 1073083.912751730066                       # Per-master bytes read from memory rate (Bytes/sec)
system.mem_ctrls.masterReadRate::.cpu.data 45310043.143603220582                       # Per-master bytes read from memory rate (Bytes/sec)
system.mem_ctrls.masterReadAccesses::.cpu.inst          928                       # Per-master read serviced memory accesses
system.mem_ctrls.masterReadAccesses::.cpu.data        39184                       # Per-master read serviced memory accesses
system.mem_ctrls.masterReadTotalLat::.cpu.inst     33932000                       # Per-master read total memory access latency
system.mem_ctrls.masterReadTotalLat::.cpu.data   1720425000                       # Per-master read total memory access latency
system.mem_ctrls.masterReadAvgLat::.cpu.inst     36564.66                       # Per-master read average memory access latency
system.mem_ctrls.masterReadAvgLat::.cpu.data     43906.31                       # Per-master read average memory access latency
system.mem_ctrls.pageHitRate                    80.63                       # Row buffer hit rate, read and write combined
system.mem_ctrls.rank1.actEnergy             28053060                       # Energy for activate commands per rank (pJ)
system.mem_ctrls.rank1.preEnergy             14910555                       # Energy for precharge commands per rank (pJ)
system.mem_ctrls.rank1.readEnergy           144285120                       # Energy for read commands per rank (pJ)
system.mem_ctrls.rank1.writeEnergy                  0                       # Energy for write commands per rank (pJ)
[...]
system.cpu.icache.ReadReq_avg_miss_latency::total 94446.058091                       # average ReadReq miss latency
system.cpu.icache.ReadReq_mshr_misses::.cpu.inst          241                       # number of ReadReq MSHR misses
system.cpu.icache.ReadReq_mshr_misses::total          241                       # number of ReadReq MSHR misses
system.cpu.icache.ReadReq_mshr_miss_latency::.cpu.inst     22520500                       # number of ReadReq MSHR miss cycles
system.cpu.icache.ReadReq_mshr_miss_latency::total     22520500                       # number of ReadReq MSHR miss cycles
system.cpu.icache.ReadReq_mshr_miss_rate::.cpu.inst     0.000009                       # mshr miss rate for ReadReq accesses
system.cpu.icache.ReadReq_mshr_miss_rate::total     0.000009                       # mshr miss rate for ReadReq accesses
system.cpu.icache.ReadReq_avg_mshr_miss_latency::.cpu.inst 93446.058091                       # average ReadReq mshr miss latency
system.cpu.icache.ReadReq_avg_mshr_miss_latency::total 93446.058091                       # average ReadReq mshr miss latency
system.cpu.icache.tags.pwrStateResidencyTicks::UNDEFINED  55347023000                       # Cumulative time (in ticks) in various power states
system.cpu.icache.tags.tagsinuse           237.670973                       # Cycle average of tags in use
system.cpu.icache.tags.total_refs            26268756                       # Total number of references to valid blocks.
system.cpu.icache.tags.sampled_refs               241                       # Sample count of references to valid blocks.
system.cpu.icache.tags.avg_refs          108998.987552                       # Average number of references to valid blocks.
system.cpu.icache.tags.warmup_cycle            102500                       # Cycle when the warmup percentage was hit.
system.cpu.icache.tags.occ_blocks::.cpu.inst   237.670973                       # Average occupied blocks per requestor
system.cpu.icache.tags.occ_percent::.cpu.inst     0.464201                       # Average percentage of cache occupancy
system.cpu.icache.tags.occ_percent::total     0.464201                       # Average percentage of cache occupancy
system.cpu.icache.tags.occ_task_id_blocks::1024          238                       # Occupied blocks per task id
system.cpu.icache.tags.age_task_id_blocks_1024::4          238                       # Occupied blocks per task id
system.cpu.icache.tags.occ_task_id_percent::1024     0.464844                       # Percentage of cache occupancy per task id
system.cpu.icache.tags.tag_accesses         105075265                       # Number of tag accesses
system.cpu.icache.tags.data_accesses        105075265                       # Number of data accesses
system.cpu.dtb.walker.pwrStateResidencyTicks::UNDEFINED  55347023000                       # Cumulative time (in ticks) in various power states
system.cpu.dtb.stage2_mmu.stage2_tlb.walker.pwrStateResidencyTicks::UNDEFINED  55347023000                       # Cumulative time (in ticks) in various power states
system.cpu.dcache.pwrStateResidencyTicks::UNDEFINED  55347023000                       # Cumulative time (in ticks) in various power states
system.cpu.dcache.demand_hits::.cpu.data     34682081                       # number of demand (read+write) hits
system.cpu.dcache.demand_hits::total         34682081                       # number of demand (read+write) hits
system.cpu.dcache.overall_hits::.cpu.data     34685427                       # number of overall hits
system.cpu.dcache.overall_hits::total        34685427                       # number of overall hits
system.cpu.dcache.demand_misses::.cpu.data        21932                       # number of demand (read+write) misses
system.cpu.dcache.demand_misses::total          21932                       # number of demand (read+write) misses
system.cpu.dcache.overall_misses::.cpu.data        21947                       # number of overall misses
system.cpu.dcache.overall_misses::total         21947                       # number of overall misses
system.cpu.dcache.demand_miss_latency::.cpu.data   1523558000                       # number of demand (read+write) miss cycles
system.cpu.dcache.demand_miss_latency::total   1523558000                       # number of demand (read+write) miss cycles
system.cpu.dcache.overall_miss_latency::.cpu.data   1523558000                       # number of overall miss cycles
system.cpu.dcache.overall_miss_latency::total   1523558000                       # number of overall miss cycles
system.cpu.dcache.demand_accesses::.cpu.data     34704013                       # number of demand (read+write) accesses
system.cpu.dcache.demand_accesses::total     34704013                       # number of demand (read+write) accesses
system.cpu.dcache.overall_accesses::.cpu.data     34707374                       # number of overall (read+write) accesses
system.cpu.dcache.overall_accesses::total     34707374                       # number of overall (read+write) accesses
system.cpu.dcache.demand_miss_rate::.cpu.data     0.000632                       # miss rate for demand accesses
system.cpu.dcache.demand_miss_rate::total     0.000632                       # miss rate for demand accesses
system.cpu.dcache.overall_miss_rate::.cpu.data     0.000632                       # miss rate for overall accesses
system.cpu.dcache.overall_miss_rate::total     0.000632                       # miss rate for overall accesses
system.cpu.dcache.demand_avg_miss_latency::.cpu.data 69467.353639                       # average overall miss latency
system.cpu.dcache.demand_avg_miss_latency::total 69467.353639                       # average overall miss latency
system.cpu.dcache.overall_avg_miss_latency::.cpu.data 69419.875154                       # average overall miss latency
system.cpu.dcache.overall_avg_miss_latency::total 69419.875154                       # average overall miss latency
system.cpu.dcache.blocked_cycles::no_mshrs            0                       # number of cycles access was blocked
system.cpu.dcache.blocked_cycles::no_targets            0                       # number of cycles access was blocked
system.cpu.dcache.blocked::no_mshrs                 0                       # number of cycles access was blocked
system.cpu.dcache.blocked::no_targets               0                       # number of cycles access was blocked
system.cpu.dcache.avg_blocked_cycles::no_mshrs          nan                       # average number of cycles each access was blocked
system.cpu.dcache.avg_blocked_cycles::no_targets          nan                       # average number of cycles each access was blocked
system.cpu.dcache.writebacks::.writebacks        16646                       # number of writebacks
system.cpu.dcache.writebacks::total             16646                       # number of writebacks
system.cpu.dcache.demand_mshr_hits::.cpu.data         4195                       # number of demand (read+write) MSHR hits
system.cpu.dcache.demand_mshr_hits::total         4195                       # number of demand (read+write) MSHR hits
system.cpu.dcache.overall_mshr_hits::.cpu.data         4195                       # number of overall MSHR hits
system.cpu.dcache.overall_mshr_hits::total         4195                       # number of overall MSHR hits
system.cpu.dcache.demand_mshr_misses::.cpu.data        17737                       # number of demand (read+write) MSHR misses
system.cpu.dcache.demand_mshr_misses::total        17737                       # number of demand (read+write) MSHR misses
system.cpu.dcache.overall_mshr_misses::.cpu.data        17745                       # number of overall MSHR misses
system.cpu.dcache.overall_mshr_misses::total        17745                       # number of overall MSHR misses
system.cpu.dcache.demand_mshr_miss_latency::.cpu.data   1115917500                       # number of demand (read+write) MSHR miss cycles
system.cpu.dcache.demand_mshr_miss_latency::total   1115917500                       # number of demand (read+write) MSHR miss cycles
system.cpu.dcache.overall_mshr_miss_latency::.cpu.data   1116425000                       # number of overall MSHR miss cycles
system.cpu.dcache.overall_mshr_miss_latency::total   1116425000                       # number of overall MSHR miss cycles
system.cpu.dcache.demand_mshr_miss_rate::.cpu.data     0.000511                       # mshr miss rate for demand accesses
system.cpu.dcache.demand_mshr_miss_rate::total     0.000511                       # mshr miss rate for demand accesses
system.cpu.dcache.overall_mshr_miss_rate::.cpu.data     0.000511                       # mshr miss rate for overall accesses
system.cpu.dcache.overall_mshr_miss_rate::total     0.000511                       # mshr miss rate for overall accesses
system.cpu.dcache.demand_avg_mshr_miss_latency::.cpu.data 62914.669899                       # average overall mshr miss latency
system.cpu.dcache.demand_avg_mshr_miss_latency::total 62914.669899                       # average overall mshr miss latency
system.cpu.dcache.overall_avg_mshr_miss_latency::.cpu.data 62914.905607                       # average overall mshr miss latency
system.cpu.dcache.overall_avg_mshr_miss_latency::total 62914.905607                       # average overall mshr miss latency
system.cpu.dcache.replacements                  16721                       # number of replacements
system.cpu.dcache.ReadReq_hits::.cpu.data     20485757                       # number of ReadReq hits
system.cpu.dcache.ReadReq_hits::total        20485757                       # number of ReadReq hits
system.cpu.dcache.ReadReq_misses::.cpu.data         8083                       # number of ReadReq misses
system.cpu.dcache.ReadReq_misses::total          8083                       # number of ReadReq misses
system.cpu.dcache.ReadReq_miss_latency::.cpu.data    116478000                       # number of ReadReq miss cycles
system.cpu.dcache.ReadReq_miss_latency::total    116478000                       # number of ReadReq miss cycles
system.cpu.dcache.ReadReq_accesses::.cpu.data     20493840                       # number of ReadReq accesses(hits+misses)
system.cpu.dcache.ReadReq_accesses::total     20493840                       # number of ReadReq accesses(hits+misses)
system.cpu.dcache.ReadReq_miss_rate::.cpu.data     0.000394                       # miss rate for ReadReq accesses
system.cpu.dcache.ReadReq_miss_rate::total     0.000394                       # miss rate for ReadReq accesses
system.cpu.dcache.ReadReq_avg_miss_latency::.cpu.data 14410.243721                       # average ReadReq miss latency
system.cpu.dcache.ReadReq_avg_miss_latency::total 14410.243721                       # average ReadReq miss latency
system.cpu.dcache.ReadReq_mshr_hits::.cpu.data           60                       # number of ReadReq MSHR hits
system.cpu.dcache.ReadReq_mshr_hits::total           60                       # number of ReadReq MSHR hits
system.cpu.dcache.ReadReq_mshr_misses::.cpu.data         8023                       # number of ReadReq MSHR misses
system.cpu.dcache.ReadReq_mshr_misses::total         8023                       # number of ReadReq MSHR misses
system.cpu.dcache.ReadReq_mshr_miss_latency::.cpu.data    104019000                       # number of ReadReq MSHR miss cycles
system.cpu.dcache.ReadReq_mshr_miss_latency::total    104019000                       # number of ReadReq MSHR miss cycles
system.cpu.dcache.ReadReq_mshr_miss_rate::.cpu.data     0.000391                       # mshr miss rate for ReadReq accesses
system.cpu.dcache.ReadReq_mshr_miss_rate::total     0.000391                       # mshr miss rate for ReadReq accesses
system.cpu.dcache.ReadReq_avg_mshr_miss_latency::.cpu.data 12965.100337                       # average ReadReq mshr miss latency
system.cpu.dcache.ReadReq_avg_mshr_miss_latency::total 12965.100337                       # average ReadReq mshr miss latency
system.cpu.dcache.WriteReq_hits::.cpu.data     14196324                       # number of WriteReq hits
system.cpu.dcache.WriteReq_hits::total       14196324                       # number of WriteReq hits
system.cpu.dcache.WriteReq_misses::.cpu.data        13849                       # number of WriteReq misses
system.cpu.dcache.WriteReq_misses::total        13849                       # number of WriteReq misses
system.cpu.dcache.WriteReq_miss_latency::.cpu.data   1407080000                       # number of WriteReq miss cycles
system.cpu.dcache.WriteReq_miss_latency::total   1407080000                       # number of WriteReq miss cycles
system.cpu.dcache.WriteReq_accesses::.cpu.data     14210173                       # number of WriteReq accesses(hits+misses)
system.cpu.dcache.WriteReq_accesses::total     14210173                       # number of WriteReq accesses(hits+misses)
system.cpu.dcache.WriteReq_miss_rate::.cpu.data     0.000975                       # miss rate for WriteReq accesses
system.cpu.dcache.WriteReq_miss_rate::total     0.000975                       # miss rate for WriteReq accesses
system.cpu.dcache.WriteReq_avg_miss_latency::.cpu.data 101601.559679                       # average WriteReq miss latency
system.cpu.dcache.WriteReq_avg_miss_latency::total 101601.559679                       # average WriteReq miss latency
system.cpu.dcache.WriteReq_mshr_hits::.cpu.data         4135                       # number of WriteReq MSHR hits
system.cpu.dcache.WriteReq_mshr_hits::total         4135                       # number of WriteReq MSHR hits
system.cpu.dcache.WriteReq_mshr_misses::.cpu.data         9714                       # number of WriteReq MSHR misses
system.cpu.dcache.WriteReq_mshr_misses::total         9714                       # number of WriteReq MSHR misses
system.cpu.dcache.WriteReq_mshr_miss_latency::.cpu.data   1011898500                       # number of WriteReq MSHR miss cycles
system.cpu.dcache.WriteReq_mshr_miss_latency::total   1011898500                       # number of WriteReq MSHR miss cycles
system.cpu.dcache.WriteReq_mshr_miss_rate::.cpu.data     0.000684                       # mshr miss rate for WriteReq accesses
system.cpu.dcache.WriteReq_mshr_miss_rate::total     0.000684                       # mshr miss rate for WriteReq accesses
system.cpu.dcache.WriteReq_avg_mshr_miss_latency::.cpu.data 104169.085855                       # average WriteReq mshr miss latency
system.cpu.dcache.WriteReq_avg_mshr_miss_latency::total 104169.085855                       # average WriteReq mshr miss latency
system.cpu.dcache.SoftPFReq_hits::.cpu.data         3346                       # number of SoftPFReq hits
system.cpu.dcache.SoftPFReq_hits::total          3346                       # number of SoftPFReq hits
system.cpu.dcache.SoftPFReq_misses::.cpu.data           15                       # number of SoftPFReq misses
system.cpu.dcache.SoftPFReq_misses::total           15                       # number of SoftPFReq misses
system.cpu.dcache.SoftPFReq_accesses::.cpu.data         3361                       # number of SoftPFReq accesses(hits+misses)
system.cpu.dcache.SoftPFReq_accesses::total         3361                       # number of SoftPFReq accesses(hits+misses)
system.cpu.dcache.SoftPFReq_miss_rate::.cpu.data     0.004463                       # miss rate for SoftPFReq accesses
system.cpu.dcache.SoftPFReq_miss_rate::total     0.004463                       # miss rate for SoftPFReq accesses
system.cpu.dcache.SoftPFReq_mshr_misses::.cpu.data            8                       # number of SoftPFReq MSHR misses
system.cpu.dcache.SoftPFReq_mshr_misses::total            8                       # number of SoftPFReq MSHR misses
system.cpu.dcache.SoftPFReq_mshr_miss_latency::.cpu.data       507500                       # number of SoftPFReq MSHR miss cycles
system.cpu.dcache.SoftPFReq_mshr_miss_latency::total       507500                       # number of SoftPFReq MSHR miss cycles
system.cpu.dcache.SoftPFReq_mshr_miss_rate::.cpu.data     0.002380                       # mshr miss rate for SoftPFReq accesses
system.cpu.dcache.SoftPFReq_mshr_miss_rate::total     0.002380                       # mshr miss rate for SoftPFReq accesses
system.cpu.dcache.SoftPFReq_avg_mshr_miss_latency::.cpu.data 63437.500000                       # average SoftPFReq mshr miss latency
system.cpu.dcache.SoftPFReq_avg_mshr_miss_latency::total 63437.500000                       # average SoftPFReq mshr miss latency
system.cpu.dcache.LoadLockedReq_hits::.cpu.data        89082                       # number of LoadLockedReq hits
system.cpu.dcache.LoadLockedReq_hits::total        89082                       # number of LoadLockedReq hits
system.cpu.dcache.LoadLockedReq_accesses::.cpu.data        89082                       # number of LoadLockedReq accesses(hits+misses)
system.cpu.dcache.LoadLockedReq_accesses::total        89082                       # number of LoadLockedReq accesses(hits+misses)
system.cpu.dcache.StoreCondReq_hits::.cpu.data        89082                       # number of StoreCondReq hits
system.cpu.dcache.StoreCondReq_hits::total        89082                       # number of StoreCondReq hits
system.cpu.dcache.StoreCondReq_accesses::.cpu.data        89082                       # number of StoreCondReq accesses(hits+misses)
system.cpu.dcache.StoreCondReq_accesses::total        89082                       # number of StoreCondReq accesses(hits+misses)
system.cpu.dcache.tags.pwrStateResidencyTicks::UNDEFINED  55347023000                       # Cumulative time (in ticks) in various power states
system.cpu.dcache.tags.tagsinuse          1013.105471                       # Cycle average of tags in use
system.cpu.dcache.tags.total_refs            34881336                       # Total number of references to valid blocks.
system.cpu.dcache.tags.sampled_refs             17745                       # Sample count of references to valid blocks.
system.cpu.dcache.tags.avg_refs           1965.699408                       # Average number of references to valid blocks.
system.cpu.dcache.tags.warmup_cycle            240500                       # Cycle when the warmup percentage was hit.
system.cpu.dcache.tags.occ_blocks::.cpu.data  1013.105471                       # Average occupied blocks per requestor
system.cpu.dcache.tags.occ_percent::.cpu.data     0.989361                       # Average percentage of cache occupancy
system.cpu.dcache.tags.occ_percent::total     0.989361                       # Average percentage of cache occupancy
system.cpu.dcache.tags.occ_task_id_blocks::1024         1024                       # Occupied blocks per task id
system.cpu.dcache.tags.age_task_id_blocks_1024::0            1                       # Occupied blocks per task id
system.cpu.dcache.tags.age_task_id_blocks_1024::1            8                       # Occupied blocks per task id
system.cpu.dcache.tags.age_task_id_blocks_1024::2          277                       # Occupied blocks per task id
system.cpu.dcache.tags.age_task_id_blocks_1024::3          673                       # Occupied blocks per task id
system.cpu.dcache.tags.age_task_id_blocks_1024::4           65                       # Occupied blocks per task id
system.cpu.dcache.tags.occ_task_id_percent::1024            1                       # Percentage of cache occupancy per task id
system.cpu.dcache.tags.tag_accesses         279102049                       # Number of tag accesses
system.cpu.dcache.tags.data_accesses        279102049                       # Number of data accesses
system.cpu.itb.walker.pwrStateResidencyTicks::UNDEFINED  55347023000                       # Cumulative time (in ticks) in various power states
system.cpu.itb.stage2_mmu.stage2_tlb.walker.pwrStateResidencyTicks::UNDEFINED  55347023000                       # Cumulative time (in ticks) in various power states

---------- End Simulation Statistics   ----------
